192
p8-1 surface w defect
C    3.379873	1.511588	6.849637
C    4.106437	0.638464	5.975879
C    2.820464	2.759433	6.161201
C    -2.820464	-2.759433	6.161201
C    -2.820464	2.759433	-6.161201
C    -2.820464	2.759433	6.161201
C    -2.759433	-6.161201	-2.820464
C    -2.759433	-6.161201	2.820464
C    -2.759433	6.161201	-2.820464
C    -2.759433	6.161201	2.820464
C    -6.161201	-2.820464	-2.759433
C    -6.161201	-2.820464	2.759433
C    -6.161201	2.820464	-2.759433
C    -6.161201	2.820464	2.759433
C    6.161201	-2.820464	-2.759433
C    6.161201	-2.820464	2.759433
C    6.161201	2.820464	-2.759433
C    6.161201	2.820464	2.759433
C    2.759433	-6.161201	-2.820464
C    2.759433	-6.161201	2.820464
C    2.759433	6.161201	-2.820464
C    2.759433	6.161201	2.820464
C    2.820464	-2.759433	-6.161201
C    2.820464	-2.759433	6.161201
C    2.820464	2.759433	-6.161201
C    -2.820464	-2.759433	-6.161201
C    4.665846	1.326900	4.728033
C    -4.665846	-1.326900	4.728033
C    -4.665846	1.326900	-4.728033
C    -4.665846	1.326900	4.728033
C    -1.326900	-4.728033	-4.665846
C    -1.326900	-4.728033	4.665846
C    -1.326900	4.728033	-4.665846
C    -1.326900	4.728033	4.665846
C    -4.728033	-4.665846	-1.326900
C    -4.728033	-4.665846	1.326900
C    -4.728033	4.665846	-1.326900
C    -4.728033	4.665846	1.326900
C    4.728033	-4.665846	-1.326900
C    4.728033	-4.665846	1.326900
C    4.728033	4.665846	-1.326900
C    4.728033	4.665846	1.326900
C    1.326900	-4.728033	-4.665846
C    1.326900	-4.728033	4.665846
C    1.326900	4.728033	-4.665846
C    1.326900	4.728033	4.665846
C    4.665846	-1.326900	-4.728033
C    4.665846	-1.326900	4.728033
C    4.665846	1.326900	-4.728033
C    -4.665846	-1.326900	-4.728033
C    1.572619	3.368814	6.798635
C    -1.572619	-3.368814	6.798635
C    -1.572619	3.368814	-6.798635
C    -1.572619	3.368814	6.798635
C    -3.368814	-6.798635	-1.572619
C    -3.368814	-6.798635	1.572619
C    -3.368814	6.798635	-1.572619
C    -3.368814	6.798635	1.572619
C    -6.798635	-1.572619	-3.368814
C    -6.798635	-1.572619	3.368814
C    -6.798635	1.572619	-3.368814
C    -6.798635	1.572619	3.368814
C    6.798635	-1.572619	-3.368814
C    6.798635	-1.572619	3.368814
C    6.798635	1.572619	-3.368814
C    6.798635	1.572619	3.368814
C    3.368814	-6.798635	-1.572619
C    3.368814	-6.798635	1.572619
C    3.368814	6.798635	-1.572619
C    3.368814	6.798635	1.572619
C    1.572619	-3.368814	-6.798635
C    1.572619	-3.368814	6.798635
C    1.572619	3.368814	-6.798635
C    -1.572619	-3.368814	-6.798635
C    -3.379873	-1.511588	6.849637
C    -3.379873	1.511588	-6.849637
C    -3.379873	1.511588	6.849637
C    -1.511588	-6.849637	-3.379873
C    -1.511588	-6.849637	3.379873
C    -1.511588	6.849637	-3.379873
C    -1.511588	6.849637	3.379873
C    -6.849637	-3.379873	-1.511588
C    -6.849637	-3.379873	1.511588
C    -6.849637	3.379873	-1.511588
C    -6.849637	3.379873	1.511588
C    6.849637	-3.379873	-1.511588
C    6.849637	-3.379873	1.511588
C    6.849637	3.379873	-1.511588
C    6.849637	3.379873	1.511588
C    1.511588	-6.849637	-3.379873
C    1.511588	-6.849637	3.379873
C    1.511588	6.849637	-3.379873
C    1.511588	6.849637	3.379873
C    3.379873	-1.511588	-6.849637
C    3.379873	-1.511588	6.849637
C    3.379873	1.511588	-6.849637
C    -3.379873	-1.511588	-6.849637
C    3.184126	3.134154	4.913356
C    -3.184126	-3.134154	4.913356
C    -3.184126	3.134154	-4.913356
C    -3.184126	3.134154	4.913356
C    -3.134154	-4.913356	-3.184126
C    -3.134154	-4.913356	3.184126
C    -3.134154	4.913356	-3.184126
C    -3.134154	4.913356	3.184126
C    -4.913356	-3.184126	-3.134154
C    -4.913356	-3.184126	3.134154
C    -4.913356	3.184126	-3.134154
C    -4.913356	3.184126	3.134154
C    4.913356	-3.184126	-3.134154
C    4.913356	-3.184126	3.134154
C    4.913356	3.184126	-3.134154
C    4.913356	3.184126	3.134154
C    3.134154	-4.913356	-3.184126
C    3.134154	-4.913356	3.184126
C    3.134154	4.913356	-3.184126
C    3.134154	4.913356	3.184126
C    3.184126	-3.134154	-4.913356
C    3.184126	-3.134154	4.913356
C    3.184126	3.134154	-4.913356
C    -3.184126	-3.134154	-4.913356
C    -4.106437	-0.638464	5.975879
C    -4.106437	0.638464	-5.975879
C    -4.106437	0.638464	5.975879
C    -0.638464	-5.975879	-4.106437
C    -0.638464	-5.975879	4.106437
C    -0.638464	5.975879	-4.106437
C    -0.638464	5.975879	4.106437
C    -5.975879	-4.106437	-0.638464
C    -5.975879	-4.106437	0.638464
C    -5.975879	4.106437	-0.638464
C    -5.975879	4.106437	0.638464
C    5.975879	-4.106437	-0.638464
C    5.975879	-4.106437	0.638464
C    5.975879	4.106437	-0.638464
C    5.975879	4.106437	0.638464
C    0.638464	-5.975879	-4.106437
C    0.638464	-5.975879	4.106437
C    0.638464	5.975879	-4.106437
C    0.638464	5.975879	4.106437
C    4.106437	-0.638464	-5.975879
C    4.106437	-0.638464	5.975879
C    4.106437	0.638464	-5.975879
C    -4.106437	-0.638464	-5.975879
C    5.913691	0.688436	4.117622
C    -5.913691	-0.688436	4.117622
C    -5.913691	0.688436	-4.117622
C    -5.913691	0.688436	4.117622
C    -0.688436	-4.117622	-5.913691
C    -0.688436	-4.117622	5.913691
C    -0.688436	4.117622	-5.913691
C    -0.688436	4.117622	5.913691
C    -4.117622	-5.913691	-0.688436
C    -4.117622	-5.913691	0.688436
C    -4.117622	5.913691	-0.688436
C    -4.117622	5.913691	0.688436
C    4.117622	-5.913691	-0.688436
C    4.117622	-5.913691	0.688436
C    4.117622	5.913691	-0.688436
C    4.117622	5.913691	0.688436
C    0.688436	-4.117622	-5.913691
C    0.688436	-4.117622	5.913691
C    0.688436	4.117622	-5.913691
C    0.688436	4.117622	5.913691
C    5.913691	-0.688436	-4.117622
C    5.913691	-0.688436	4.117622
C    5.913691	0.688436	-4.117622
C    -5.913691	-0.688436	-4.117622
C    4.302944	2.574745	4.353946
C    -4.302944	-2.574745	4.353946
C    -4.302944	2.574745	-4.353946
C    -4.302944	2.574745	4.353946
C    -2.574745	-4.353946	-4.302944
C    -2.574745	-4.353946	4.302944
C    -2.574745	4.353946	-4.302944
C    -2.574745	4.353946	4.302944
C    -4.353946	-4.302944	-2.574745
C    -4.353946	-4.302944	2.574745
C    -4.353946	4.302944	-2.574745
C    -4.353946	4.302944	2.574745
C    4.353946	-4.302944	-2.574745
C    4.353946	-4.302944	2.574745
C    4.353946	4.302944	-2.574745
C    4.353946	4.302944	2.574745
C    2.574745	-4.353946	-4.302944
C    2.574745	-4.353946	4.302944
C    2.574745	4.353946	-4.302944
C    2.574745	4.353946	4.302944
C    4.302944	-2.574745	-4.353946
C    4.302944	-2.574745	4.353946
C    4.302944	2.574745	-4.353946
C    -4.302944	-2.574745	-4.353946
